[InternetShortcut]
URL=https://water.usgs.gov/water-resources/legacy-software/MODFLOW-LGR.zip
IDList=
HotKey=0
[{000214A0-0000-0000-C000-000000000046}]
Prop3=19,11
