xul  1.908326708164E+005 
yul  1.882613097468E+005 
rotation  3.600000000000E+001 
length_units meters
time_units days
start_date 1/1/2000
start_time 0:0:0
model MODFLOW-NWT
epsg 31370
