MODPATH_PATHLINE_FILE 6 0                                                       
 1   0.100000000000000E+01
END HEADER
         1     1     0     1   0.000000000000000E+00   0.241666666666667E+04   0.528333333333333E+04   0.101364841461182E+02    1   48   25  1  0.1666667E+00   0.8333333E+00   0.1000000E+01     1
         1     1    -1     1   0.221538201856430E+04   0.245103102278049E+04   0.520000000000000E+04  -0.104493882149406E+01    1   49   25  1  0.5103102E+00   0.1000000E+01   0.6311970E+00     1
         1     1    -1     1   0.429463897395238E+04   0.249401748155236E+04   0.510000000000000E+04  -0.835945254569420E+01    1   50   25  1  0.9401748E+00   0.1000000E+01   0.3893846E+00     1
         1     1    -1     1   0.454533373771534E+04   0.250000000000000E+04   0.508622572224731E+04  -0.890454515418138E+01    1   50   26  1  0.0000000E+00   0.8622572E+00   0.3718956E+00     1
         1     1    -1     1   0.593156149986492E+04   0.253474290305388E+04   0.500000000000000E+04  -0.123738433491076E+02    1   51   26  1  0.3474290E+00   0.1000000E+01   0.2570590E+00     1
         1     1    -1     1   0.733787581336705E+04   0.257682817873160E+04   0.490000000000000E+04  -0.145350964150526E+02    1   52   26  1  0.7682818E+00   0.1000000E+01   0.1853838E+00     1
         1     1    -1     1   0.801458464185084E+04   0.260000000000000E+04   0.484754704764668E+04  -0.154237977546585E+02    1   52   27  1  0.0000000E+00   0.4754705E+00   0.1556945E+00     1
         1     1    -1     1   0.858675257334831E+04   0.262019131919721E+04   0.480000000000000E+04  -0.161155004928727E+02    1   53   27  1  0.2019132E+00   0.1000000E+01   0.1331206E+00     1
         1     1    -1     1   0.971708494989873E+04   0.266296045804517E+04   0.470000000000000E+04  -0.172472922278411E+02    1   54   27  1  0.6296046E+00   0.1000000E+01   0.9508665E-01     1
         1     1    -1     1   0.106759208956419E+05   0.270000000000000E+04   0.460769161878601E+04  -0.180063957831565E+02    1   54   28  1  0.0000000E+00   0.7691619E-01   0.6910064E-01     1
         1     1    -1     1   0.107550660303059E+05   0.270313908873472E+04   0.460000000000000E+04  -0.180761043182421E+02    1   55   28  1  0.3139089E-01   0.1000000E+01   0.6725459E-01     1
         1     1    -1     1   0.117428020408243E+05   0.274055342555582E+04   0.450000000000000E+04  -0.186170350074222E+02    1   56   28  1  0.4055343E+00   0.1000000E+01   0.4879180E-01     1
         1     1    -1     1   0.126665881646597E+05   0.277267868440132E+04   0.440000000000000E+04  -0.189645494404686E+02    1   57   28  1  0.7267868E+00   0.1000000E+01   0.3689527E-01     1
         1     1    -1     1   0.135336696526611E+05   0.279673939856446E+04   0.430000000000000E+04  -0.191498328965316E+02    1   58   28  1  0.9673940E+00   0.1000000E+01   0.3061763E-01     1
         1     1    -1     1   0.137854320057606E+05   0.280000000000000E+04   0.426915449686484E+04  -0.191631913384402E+02    1   58   29  1  0.0000000E+00   0.6915450E+00   0.3017268E-01     1
         1     1    -1     1   0.144146831579105E+05   0.280903904821119E+04   0.420000000000000E+04  -0.191786765315871E+02    1   59   29  1  0.9039048E-01   0.1000000E+01   0.2992133E-01     1
         1     1    -1     1   0.152263938619260E+05   0.280000000000000E+04   0.410299701492720E+04  -0.190805655123862E+02    1   59   28  1  0.1000000E+01   0.2997015E-01   0.3353400E-01     1
         1     1    -1     1   0.152459754019491E+05   0.279975283718414E+04   0.410000000000000E+04  -0.190911894512348E+02    1   60   28  1  0.9975284E+00   0.1000000E+01   0.3361963E-01     1
         1     1    -1     1   0.158919686003980E+05   0.276995510173035E+04   0.400000000000000E+04  -0.189034099665597E+02    1   61   28  1  0.6995510E+00   0.1000000E+01   0.4115726E-01     1
         1     1    -1     1   0.165612422125865E+05   0.271417940858833E+04   0.390000000000000E+04  -0.186071960555865E+02    1   62   28  1  0.1417941E+00   0.1000000E+01   0.5336076E-01     1
         1     1    -1     1   0.166863403972330E+05   0.270000000000000E+04   0.388215701582730E+04  -0.185430804126252E+02    1   62   27  1  0.1000000E+01   0.8215702E+00   0.5711309E-01     1
         1     1    -1     1   0.172499475696269E+05   0.262460194267726E+04   0.380000000000000E+04  -0.179763986707739E+02    1   63   27  1  0.2460194E+00   0.1000000E+01   0.8158090E-01     1
         1     1    -1     1   0.175877541865289E+05   0.260000000000000E+04   0.375655489292909E+04  -0.175241474375547E+02    1   63   26  1  0.1000000E+01   0.5655489E+00   0.1011038E+00     1
         1     1    -1     1   0.175877541865289E+05   0.260000000000000E+04   0.375655489292909E+04  -0.175241474375547E+02    1   63   26  1  0.1000000E+01   0.5655489E+00   0.1011038E+00     1
         2     1     0     1   0.000000000000000E+00   0.241666666666667E+04   0.525000000000000E+04   0.101364841461182E+02    1   48   25  1  0.1666667E+00   0.5000000E+00   0.1000000E+01     1
         2     1    -1     1   0.126357727715268E+04   0.243573635267892E+04   0.520000000000000E+04   0.321805625041814E+01    1   49   25  1  0.3573635E+00   0.1000000E+01   0.7731533E+00     1
         2     1    -1     1   0.334283423254077E+04   0.247696913100653E+04   0.510000000000000E+04  -0.536749430929538E+01    1   50   25  1  0.7696913E+00   0.1000000E+01   0.4894677E+00     1
         2     1    -1     1   0.431462739963643E+04   0.250000000000000E+04   0.504494562755498E+04  -0.763162446876011E+01    1   50   26  1  0.0000000E+00   0.4494563E+00   0.4145611E+00     1
         2     1    -1     1   0.501126877747518E+04   0.251707521553640E+04   0.500000000000000E+04  -0.965758467333835E+01    1   51   26  1  0.1707522E+00   0.1000000E+01   0.3486174E+00     1
         2     1    -1     1   0.641758309097731E+04   0.255836955723687E+04   0.490000000000000E+04  -0.122149498241081E+02    1   52   26  1  0.5836956E+00   0.1000000E+01   0.2640892E+00     1
         2     1    -1     1   0.764416083145967E+04   0.260000000000000E+04   0.480283015906387E+04  -0.140666039830145E+02    1   52   27  1  0.0000000E+00   0.2830159E-01   0.2018698E+00     1
         2     1    -1     1   0.767770745481660E+04   0.260116585141928E+04   0.480000000000000E+04  -0.141542773573502E+02    1   53   27  1  0.1165851E-01   0.1000000E+01   0.2003311E+00     1
         2     1    -1     1   0.880803983136702E+04   0.264288420811887E+04   0.470000000000000E+04  -0.155420291697474E+02    1   54   27  1  0.4288421E+00   0.1000000E+01   0.1539915E+00     1
         2     1    -1     1   0.984361640750497E+04   0.268204623149852E+04   0.460000000000000E+04  -0.165816874193693E+02    1   55   27  1  0.8204623E+00   0.1000000E+01   0.1191173E+00     1
         2     1    -1     1   0.103432611387481E+05   0.270000000000000E+04   0.454822388891103E+04  -0.169874358326818E+02    1   55   28  1  0.0000000E+00   0.4822389E+00   0.1053117E+00     1
         2     1    -1     1   0.108122172664457E+05   0.271734856029755E+04   0.450000000000000E+04  -0.173348911900885E+02    1   56   28  1  0.1734856E+00   0.1000000E+01   0.9402657E-01     1
         2     1    -1     1   0.117360033902812E+05   0.274783965709172E+04   0.440000000000000E+04  -0.178428306803731E+02    1   57   28  1  0.4783966E+00   0.1000000E+01   0.7686445E-01     1
         2     1    -1     1   0.126030848782826E+05   0.277009421505756E+04   0.430000000000000E+04  -0.181668719891609E+02    1   58   28  1  0.7009422E+00   0.1000000E+01   0.6601766E-01     1
         2     1    -1     1   0.133785344841662E+05   0.277604288889670E+04   0.420000000000000E+04  -0.183305031078882E+02    1   59   28  1  0.7604289E+00   0.1000000E+01   0.6089059E-01     1
         2     1    -1     1   0.140596208044137E+05   0.276142591824835E+04   0.410000000000000E+04  -0.183517898512541E+02    1   60   28  1  0.6142592E+00   0.1000000E+01   0.6097224E-01     1
         2     1    -1     1   0.147056140028626E+05   0.272229895099958E+04   0.400000000000000E+04  -0.182486735649749E+02    1   61   28  1  0.2229895E+00   0.1000000E+01   0.6573086E-01     1
         2     1    -1     1   0.149445382992963E+05   0.270000000000000E+04   0.396323686362242E+04  -0.181806211898592E+02    1   61   27  1  0.1000000E+01   0.6323686E+00   0.6923790E-01     1
         2     1    -1     1   0.153616785646401E+05   0.265727760257925E+04   0.390000000000000E+04  -0.179931931339438E+02    1   62   27  1  0.5727760E+00   0.1000000E+01   0.7866937E-01     1
         2     1    -1     1   0.157514252590679E+05   0.260000000000000E+04   0.384121886596135E+04  -0.176735222609317E+02    1   62   26  1  0.1000000E+01   0.4121887E+00   0.9416918E-01     1
         2     1    -1     1   0.163363076129540E+05   0.253958639394755E+04   0.380000000000000E+04  -0.168719541378596E+02    1   63   26  1  0.3958639E+00   0.1000000E+01   0.1277367E+00     1
         2     1    -1     1   0.163363076129540E+05   0.253958639394755E+04   0.380000000000000E+04  -0.168719541378596E+02    1   63   26  1  0.3958639E+00   0.1000000E+01   0.1277367E+00     1
         3     1     0     1   0.000000000000000E+00   0.241666666666667E+04   0.521666666666667E+04   0.101364841461182E+02    1   48   25  1  0.1666667E+00   0.1666667E+00   0.1000000E+01     1
         3     1    -1     1   0.402000419378632E+03   0.242258597720205E+04   0.520000000000000E+04   0.770558252482972E+01    1   49   25  1  0.2258598E+00   0.1000000E+01   0.9225863E+00     1
         3     1    -1     1   0.248125737476672E+04   0.246231093900566E+04   0.510000000000000E+04  -0.221795015752152E+01    1   50   25  1  0.6231094E+00   0.1000000E+01   0.5948222E+00     1
         3     1    -1     1   0.408114040482154E+04   0.250000000000000E+04   0.500689039108419E+04  -0.629703162679406E+01    1   50   26  1  0.0000000E+00   0.6890391E-01   0.4592937E+00     1
         3     1    -1     1   0.418459467140719E+04   0.250248793714537E+04   0.500000000000000E+04  -0.670310046365723E+01    1   51   26  1  0.2487937E-01   0.1000000E+01   0.4482058E+00     1
         3     1    -1     1   0.559090898490932E+04   0.254312924634775E+04   0.490000000000000E+04  -0.969131813606574E+01    1   52   26  1  0.4312925E+00   0.1000000E+01   0.3496974E+00     1
         3     1    -1     1   0.685150412835158E+04   0.258530368407983E+04   0.480000000000000E+04  -0.119589187260895E+02    1   53   26  1  0.8530368E+00   0.1000000E+01   0.2747223E+00     1
         3     1    -1     1   0.726473402466882E+04   0.260000000000000E+04   0.476469228226548E+04  -0.126168343539702E+02    1   53   27  1  0.0000000E+00   0.6469228E+00   0.2530187E+00     1
         3     1    -1     1   0.798580838270973E+04   0.262631313408478E+04   0.470000000000000E+04  -0.136744329980914E+02    1   54   27  1  0.2631313E+00   0.1000000E+01   0.2185037E+00     1
         3     1    -1     1   0.902138495884767E+04   0.266472562410870E+04   0.460000000000000E+04  -0.149483592426939E+02    1   55   27  1  0.6472562E+00   0.1000000E+01   0.1760335E+00     1
         3     1    -1     1   0.996783388842582E+04   0.269837448400298E+04   0.450000000000000E+04  -0.159016130318932E+02    1   56   27  1  0.9837448E+00   0.1000000E+01   0.1442045E+00     1
         3     1    -1     1   0.100211144425453E+05   0.270000000000000E+04   0.449406566097818E+04  -0.159550493690686E+02    1   56   28  1  0.0000000E+00   0.9406566E+00   0.1427082E+00     1
         3     1    -1     1   0.108886199820321E+05   0.272742860706999E+04   0.440000000000000E+04  -0.165988320880763E+02    1   57   28  1  0.2742861E+00   0.1000000E+01   0.1211907E+00     1
         3     1    -1     1   0.117557014700335E+05   0.274819898676947E+04   0.430000000000000E+04  -0.170767574002350E+02    1   58   28  1  0.4819899E+00   0.1000000E+01   0.1052767E+00     1
         3     1    -1     1   0.125311510759172E+05   0.275031256017634E+04   0.420000000000000E+04  -0.173698773104308E+02    1   59   28  1  0.5031256E+00   0.1000000E+01   0.9592693E-01     1
         3     1    -1     1   0.132122373961646E+05   0.273016197866530E+04   0.410000000000000E+04  -0.174998510145117E+02    1   60   28  1  0.3016198E+00   0.1000000E+01   0.9248802E-01     1
         3     1    -1     1   0.136448756382586E+05   0.270000000000000E+04   0.403293761600020E+04  -0.174887586974953E+02    1   60   27  1  0.1000000E+01   0.3293762E+00   0.9354886E-01     1
         3     1    -1     1   0.138564536416526E+05   0.268301544044211E+04   0.400000000000000E+04  -0.175065180346391E+02    1   61   27  1  0.8301544E+00   0.1000000E+01   0.9489143E-01     1
         3     1    -1     1   0.145153255959851E+05   0.261149367269787E+04   0.390000000000000E+04  -0.172843441632001E+02    1   62   27  1  0.1149367E+00   0.1000000E+01   0.1064571E+00     1
         3     1    -1     1   0.145889925576877E+05   0.260000000000000E+04   0.388859074018525E+04  -0.173058806677247E+02    1   62   26  1  0.1000000E+01   0.8859074E+00   0.1090503E+00     1
         3     1    -1     1   0.155099972156878E+05   0.252421495642550E+04   0.380000000000000E+04  -0.161602264496602E+02    1   63   26  1  0.2421496E+00   0.1000000E+01   0.1568008E+00     1
         3     1    -1     1   0.155099972156878E+05   0.252421495642550E+04   0.380000000000000E+04  -0.161602264496602E+02    1   63   26  1  0.2421496E+00   0.1000000E+01   0.1568008E+00     1
         4     1     0     1   0.000000000000000E+00   0.245000000000000E+04   0.528333333333333E+04   0.101364841461182E+02    1   48   25  1  0.5000000E+00   0.8333333E+00   0.1000000E+01     1
         4     1    -1     1   0.221538201856430E+04   0.248882827405638E+04   0.520000000000000E+04  -0.104493882149406E+01    1   49   25  1  0.8882827E+00   0.1000000E+01   0.6311970E+00     1
         4     1    -1     1   0.272700804277610E+04   0.250000000000000E+04   0.517758145054963E+04  -0.310490720730020E+01    1   49   26  1  0.0000000E+00   0.7758145E+00   0.5636400E+00     1
         4     1    -1     1   0.422698419646144E+04   0.253491534208389E+04   0.510000000000000E+04  -0.816738803441150E+01    1   50   26  1  0.3491534E+00   0.1000000E+01   0.3966035E+00     1
         4     1    -1     1   0.585523833454906E+04   0.257987450482799E+04   0.500000000000000E+04  -0.123357617936587E+02    1   51   26  1  0.7987450E+00   0.1000000E+01   0.2583426E+00     1
         4     1    -1     1   0.650459058083197E+04   0.260000000000000E+04   0.495515932102268E+04  -0.133777377614874E+02    1   51   27  1  0.0000000E+00   0.5515932E+00   0.2238114E+00     1
         4     1    -1     1   0.723509687278752E+04   0.262359080941216E+04   0.490000000000000E+04  -0.147367124820138E+02    1   52   27  1  0.2359081E+00   0.1000000E+01   0.1790710E+00     1
         4     1    -1     1   0.846060136972969E+04   0.266934928239938E+04   0.480000000000000E+04  -0.162234415907646E+02    1   53   27  1  0.6934928E+00   0.1000000E+01   0.1294215E+00     1
         4     1    -1     1   0.922894129519185E+04   0.270000000000000E+04   0.473287979737140E+04  -0.169949136750723E+02    1   53   28  1  0.0000000E+00   0.3287980E+00   0.1033437E+00     1
         4     1    -1     1   0.959478651370034E+04   0.271509251501265E+04   0.470000000000000E+04  -0.173329386053961E+02    1   54   28  1  0.1509252E+00   0.1000000E+01   0.9244345E-01     1
         4     1    -1     1   0.106538651641271E+05   0.275952530270726E+04   0.460000000000000E+04  -0.181031295210255E+02    1   55   28  1  0.5952530E+00   0.1000000E+01   0.6630985E-01     1
         4     1    -1     1   0.116217497857461E+05   0.280000000000000E+04   0.450206924198016E+04  -0.186233772118138E+02    1   55   29  1  0.0000000E+00   0.2069242E-01   0.4830606E-01     1
         4     1    -1     1   0.116426377027347E+05   0.280090687987486E+04   0.450000000000000E+04  -0.186441838909648E+02    1   56   29  1  0.9068799E-02   0.1000000E+01   0.4799504E-01     1
         4     1    -1     1   0.126311206172123E+05   0.284087535292559E+04   0.440000000000000E+04  -0.189453389929586E+02    1   57   29  1  0.4087535E+00   0.1000000E+01   0.3767723E-01     1
         4     1    -1     1   0.136018424495918E+05   0.287756096938338E+04   0.430000000000000E+04  -0.190983768605101E+02    1   58   29  1  0.7756097E+00   0.1000000E+01   0.3250969E-01     1
         4     1    -1     1   0.142521309190886E+05   0.290000000000000E+04   0.423043753233449E+04  -0.191145171898553E+02    1   58   30  1  0.0000000E+00   0.3043753E+00   0.3203551E-01     1
         4     1    -1     1   0.145742139672871E+05   0.291240007197192E+04   0.420000000000000E+04  -0.191024948004822E+02    1   59   30  1  0.1240007E+00   0.1000000E+01   0.3275028E-01     1
         4     1    -1     1   0.155799620205944E+05   0.293807274517772E+04   0.410000000000000E+04  -0.189538495355755E+02    1   60   30  1  0.3807275E+00   0.1000000E+01   0.3854229E-01     1
         4     1    -1     1   0.164822037825036E+05   0.294693074907638E+04   0.400000000000000E+04  -0.187334682032151E+02    1   61   30  1  0.4693075E+00   0.1000000E+01   0.4717156E-01     1
         4     1    -1     1   0.173001988881971E+05   0.294180704742037E+04   0.390000000000000E+04  -0.184449833398610E+02    1   62   30  1  0.4180705E+00   0.1000000E+01   0.5861104E-01     1
         4     1    -1     1   0.180874966363314E+05   0.292465478092573E+04   0.380000000000000E+04  -0.180763451513197E+02    1   63   30  1  0.2465478E+00   0.1000000E+01   0.7338167E-01     1
         4     1    -1     1   0.185363586698768E+05   0.290000000000000E+04   0.374459714537885E+04  -0.178151377263401E+02    1   63   29  1  0.1000000E+01   0.4459715E+00   0.8406150E-01     1
         4     1    -1     1   0.191069613783065E+05   0.286271323286107E+04   0.370000000000000E+04  -0.174713933169055E+02    1   64   29  1  0.6271323E+00   0.1000000E+01   0.9873352E-01     1
         4     1    -1     1   0.197582325957379E+05   0.280000000000000E+04   0.364914454768000E+04  -0.170083779619348E+02    1   64   28  1  0.1000000E+01   0.4914455E+00   0.1191939E+00     1
         4     1    -1     1   0.203782457716675E+05   0.272875728127035E+04   0.360000000000000E+04  -0.164537924364202E+02    1   65   28  1  0.2875728E+00   0.1000000E+01   0.1434986E+00     1
         4     1    -1     1   0.208289592950254E+05   0.270000000000000E+04   0.356768069659013E+04  -0.160128450608593E+02    1   65   27  1  0.1000000E+01   0.6768070E+00   0.1632792E+00     1
         4     1    -1     1   0.241460406342443E+05   0.264610984651981E+04   0.360000000000000E+04  -0.133875334879345E+02    1   64   27  1  0.4610985E+00   0.0000000E+00   0.2709544E+00     1
         4     1    -1     1   0.241460406342443E+05   0.264610984651981E+04   0.360000000000000E+04  -0.133875334879345E+02    1   64   27  1  0.4610985E+00   0.0000000E+00   0.2709544E+00     1
         5     1     0     1   0.000000000000000E+00   0.245000000000000E+04   0.525000000000000E+04   0.101364841461182E+02    1   48   25  1  0.5000000E+00   0.5000000E+00   0.1000000E+01     1
         5     1    -1     1   0.126357727715268E+04   0.247154683161239E+04   0.520000000000000E+04   0.321805625041814E+01    1   49   25  1  0.7154683E+00   0.1000000E+01   0.7731533E+00     1
         5     1    -1     1   0.259457461778457E+04   0.250000000000000E+04   0.513879049309154E+04  -0.260405167306229E+01    1   49   26  1  0.0000000E+00   0.3879049E+00   0.5803492E+00     1
         5     1    -1     1   0.331500910036754E+04   0.251634854437907E+04   0.510000000000000E+04  -0.529462894424463E+01    1   50   26  1  0.1634854E+00   0.1000000E+01   0.4928921E+00     1
         5     1    -1     1   0.494326323845516E+04   0.255927184891189E+04   0.500000000000000E+04  -0.101767420230201E+02    1   51   26  1  0.5927185E+00   0.1000000E+01   0.3311178E+00     1
         5     1    -1     1   0.627125073686543E+04   0.260000000000000E+04   0.490585675312239E+04  -0.125052635783329E+02    1   51   27  1  0.0000000E+00   0.5856753E-01   0.2532983E+00     1
         5     1    -1     1   0.634633508671777E+04   0.260236379123359E+04   0.490000000000000E+04  -0.127096017911430E+02    1   52   27  1  0.2363791E-01   0.1000000E+01   0.2480386E+00     1
         5     1    -1     1   0.757183958365994E+04   0.264659573625151E+04   0.480000000000000E+04  -0.144710553490396E+02    1   53   27  1  0.4659574E+00   0.1000000E+01   0.1894752E+00     1
         5     1    -1     1   0.870217196021036E+04   0.269082319877395E+04   0.470000000000000E+04  -0.158174643290930E+02    1   54   27  1  0.9082320E+00   0.1000000E+01   0.1444771E+00     1
         5     1    -1     1   0.893609561182017E+04   0.270000000000000E+04   0.467811445992382E+04  -0.160624898201637E+02    1   54   28  1  0.0000000E+00   0.7811446E+00   0.1364787E+00     1
         5     1    -1     1   0.975764879844505E+04   0.273337924162907E+04   0.460000000000000E+04  -0.168059842874133E+02    1   55   28  1  0.3337924E+00   0.1000000E+01   0.1116548E+00     1
         5     1    -1     1   0.107453848089634E+05   0.277289519649622E+04   0.450000000000000E+04  -0.175086370176821E+02    1   56   28  1  0.7289520E+00   0.1000000E+01   0.8789672E-01     1
         5     1    -1     1   0.114783882057958E+05   0.280000000000000E+04   0.442111113608390E+04  -0.178903465101589E+02    1   56   29  1  0.0000000E+00   0.2111114E+00   0.7468041E-01     1
         5     1    -1     1   0.116851332498564E+05   0.280797254232978E+04   0.440000000000000E+04  -0.179940920313367E+02    1   57   29  1  0.7972542E-01   0.1000000E+01   0.7166004E-01     1
         5     1    -1     1   0.126558550822359E+05   0.283956250533354E+04   0.430000000000000E+04  -0.182777091065980E+02    1   58   29  1  0.3956251E+00   0.1000000E+01   0.6210037E-01     1
         5     1    -1     1   0.135784532191743E+05   0.286308906117581E+04   0.420000000000000E+04  -0.184173388135006E+02    1   59   29  1  0.6308906E+00   0.1000000E+01   0.5765734E-01     1
         5     1    -1     1   0.144141576427201E+05   0.286945603073485E+04   0.410000000000000E+04  -0.184262220298718E+02    1   60   29  1  0.6945603E+00   0.1000000E+01   0.5799819E-01     1
         5     1    -1     1   0.151926625164722E+05   0.285609833438474E+04   0.400000000000000E+04  -0.183205324235216E+02    1   61   29  1  0.5609833E+00   0.1000000E+01   0.6265047E-01     1
         5     1    -1     1   0.160551916136294E+05   0.281539445299782E+04   0.390000000000000E+04  -0.180855141505125E+02    1   62   29  1  0.1539445E+00   0.1000000E+01   0.7245353E-01     1
         5     1    -1     1   0.163065478196578E+05   0.280000000000000E+04   0.387472660981305E+04  -0.179872091282034E+02    1   62   28  1  0.1000000E+01   0.7472661E+00   0.7711355E-01     1
         5     1    -1     1   0.169064147536718E+05   0.275434499598199E+04   0.380000000000000E+04  -0.176587875430808E+02    1   63   28  1  0.5434500E+00   0.1000000E+01   0.9169733E-01     1
         5     1    -1     1   0.173274599736401E+05   0.270000000000000E+04   0.375437025630624E+04  -0.173537733201902E+02    1   63   27  1  0.1000000E+01   0.5437026E+00   0.1066819E+00     1
         5     1    -1     1   0.178958503910854E+05   0.263343289625998E+04   0.370000000000000E+04  -0.166948719932644E+02    1   64   27  1  0.3343290E+00   0.1000000E+01   0.1354319E+00     1
         5     1    -1     1   0.178958503910854E+05   0.263343289625998E+04   0.370000000000000E+04  -0.166948719932644E+02    1   64   27  1  0.3343290E+00   0.1000000E+01   0.1354319E+00     1
         6     1     0     1   0.000000000000000E+00   0.245000000000000E+04   0.521666666666667E+04   0.101364841461182E+02    1   48   25  1  0.5000000E+00   0.1666667E+00   0.1000000E+01     1
         6     1    -1     1   0.402000419378632E+03   0.245668822692127E+04   0.520000000000000E+04   0.770558252482972E+01    1   49   25  1  0.5668823E+00   0.1000000E+01   0.9225863E+00     1
         6     1    -1     1   0.246665118557873E+04   0.250000000000000E+04   0.510078983561621E+04  -0.211249644286162E+01    1   49   26  1  0.0000000E+00   0.7898356E-02   0.5967480E+00     1
         6     1    -1     1   0.248078889035269E+04   0.250031356900897E+04   0.510000000000000E+04  -0.225160527836060E+01    1   50   26  1  0.3135690E-02   0.1000000E+01   0.5948876E+00     1
         6     1    -1     1   0.410904302844030E+04   0.254147863085535E+04   0.500000000000000E+04  -0.788976004821652E+01    1   51   26  1  0.4147863E+00   0.1000000E+01   0.4082064E+00     1
         6     1    -1     1   0.551535734194243E+04   0.258386544661716E+04   0.490000000000000E+04  -0.107049271175252E+02    1   52   26  1  0.8386545E+00   0.1000000E+01   0.3153131E+00     1
         6     1    -1     1   0.598497949110053E+04   0.260000000000000E+04   0.486389492987553E+04  -0.115381631105675E+02    1   52   27  1  0.0000000E+00   0.6389493E+00   0.2878941E+00     1
         6     1    -1     1   0.675820706641352E+04   0.262744342477763E+04   0.480000000000000E+04  -0.128019920598958E+02    1   53   27  1  0.2744342E+00   0.1000000E+01   0.2466734E+00     1
         6     1    -1     1   0.788853944296394E+04   0.267061309953729E+04   0.470000000000000E+04  -0.143662312097984E+02    1   54   27  1  0.7061310E+00   0.1000000E+01   0.1946070E+00     1
         6     1    -1     1   0.864602813276035E+04   0.270000000000000E+04   0.462765419582219E+04  -0.152362660119729E+02    1   54   28  1  0.0000000E+00   0.2765420E+00   0.1651166E+00     1
         6     1    -1     1   0.893233036526448E+04   0.271143180548941E+04   0.460000000000000E+04  -0.155608711285898E+02    1   55   28  1  0.1143181E+00   0.1000000E+01   0.1551809E+00     1
         6     1    -1     1   0.992006637578283E+04   0.274942246622142E+04   0.450000000000000E+04  -0.164220618210541E+02    1   56   28  1  0.4942247E+00   0.1000000E+01   0.1262317E+00     1
         6     1    -1     1   0.108438524996183E+05   0.278217231174415E+04   0.440000000000000E+04  -0.170442168164921E+02    1   57   28  1  0.8217231E+00   0.1000000E+01   0.1053207E+00     1
         6     1    -1     1   0.114744617976868E+05   0.280000000000000E+04   0.432778194800352E+04  -0.173436127435043E+02    1   57   29  1  0.0000000E+00   0.2778195E+00   0.9489808E-01     1
         6     1    -1     1   0.117446922860515E+05   0.280801613294109E+04   0.430000000000000E+04  -0.174699839079242E+02    1   58   29  1  0.8016133E-01   0.1000000E+01   0.9122440E-01     1
         6     1    -1     1   0.126672904229900E+05   0.282374048325797E+04   0.420000000000000E+04  -0.177201174118737E+02    1   59   29  1  0.2374048E+00   0.1000000E+01   0.8305756E-01     1
         6     1    -1     1   0.135029948465357E+05   0.281867140733500E+04   0.410000000000000E+04  -0.178207778907131E+02    1   60   29  1  0.1867141E+00   0.1000000E+01   0.8031053E-01     1
         6     1    -1     1   0.140022281562807E+05   0.280000000000000E+04   0.403622136944812E+04  -0.177937655712635E+02    1   60   28  1  0.1000000E+01   0.3622137E+00   0.8161524E-01     1
         6     1    -1     1   0.142368224298861E+05   0.278994175856650E+04   0.400000000000000E+04  -0.177988190273158E+02    1   61   28  1  0.8994176E+00   0.1000000E+01   0.8261482E-01     1
         6     1    -1     1   0.149060960420745E+05   0.273885142989582E+04   0.390000000000000E+04  -0.176458022704287E+02    1   62   28  1  0.3885143E+00   0.1000000E+01   0.9019344E-01     1
         6     1    -1     1   0.152705145721320E+05   0.270000000000000E+04   0.385000279714583E+04  -0.174908493168909E+02    1   62   27  1  0.1000000E+01   0.5000280E+00   0.9836188E-01     1
         6     1    -1     1   0.156198904319799E+05   0.265520001843690E+04   0.380000000000000E+04  -0.172494011545724E+02    1   63   27  1  0.5520002E+00   0.1000000E+01   0.1108896E+00     1
         6     1    -1     1   0.162761120657608E+05   0.260000000000000E+04   0.372330575064174E+04  -0.164951108558625E+02    1   63   26  1  0.1000000E+01   0.2330575E+00   0.1431255E+00     1
         6     1    -1     1   0.162761120657608E+05   0.260000000000000E+04   0.372330575064174E+04  -0.164951108558625E+02    1   63   26  1  0.1000000E+01   0.2330575E+00   0.1431255E+00     1
         7     1     0     1   0.000000000000000E+00   0.248333333333333E+04   0.528333333333333E+04   0.101364841461182E+02    1   48   25  1  0.8333333E+00   0.8333333E+00   0.1000000E+01     1
         7     1    -1     1   0.886140226001320E+03   0.250000000000000E+04   0.525241334091003E+04   0.515329049028168E+01    1   48   26  1  0.0000000E+00   0.5241334E+00   0.8359843E+00     1
         7     1    -1     1   0.211764176955856E+04   0.252482160247010E+04   0.520000000000000E+04  -0.671313706965089E+00    1   49   26  1  0.2482160E+00   0.1000000E+01   0.6448276E+00     1
         7     1    -1     1   0.409911307576300E+04   0.257506373825874E+04   0.510000000000000E+04  -0.778567878669651E+01    1   50   26  1  0.7506374E+00   0.1000000E+01   0.4093975E+00     1
         7     1    -1     1   0.494282638409901E+04   0.260000000000000E+04   0.505038008660087E+04  -0.101435391104001E+02    1   50   27  1  0.0000000E+00   0.5038009E+00   0.3312108E+00     1
         7     1    -1     1   0.571350669651915E+04   0.262413942206740E+04   0.500000000000000E+04  -0.120187934102163E+02    1   51   27  1  0.2413942E+00   0.1000000E+01   0.2697394E+00     1
         7     1    -1     1   0.707980969288429E+04   0.267206439127814E+04   0.490000000000000E+04  -0.146908740225353E+02    1   52   27  1  0.7206439E+00   0.1000000E+01   0.1806305E+00     1
         7     1    -1     1   0.778543086947187E+04   0.270000000000000E+04   0.484326547238347E+04  -0.155744766846929E+02    1   52   28  1  0.0000000E+00   0.4326547E+00   0.1510879E+00     1